data/matpower/ACTIVSg2000.m
%% MATPOWER Case Format : Version 2
function mpc = activsg2000
mpc.version = '2';

%%-----  Power Flow Data  -----%%
%% system MVA base
mpc.baseMVA = 100.0;
%% bus data
%    bus_i    type    Pd    Qd    Gs    Bs    area    Vm    Va    baseKV    zone    Vmax    Vmin
mpc.bus = [
	1001	2	20.781	5.888	0.0	0.0	1	0.97943562	-22.734843	22.0	9	1.1	0.9				
	1002	1	15.414	4.367	0.0	0.0	1	1.01273644	-18.088545	115.0	9	1.1	0.9				
	1003	1	0.0	0.0	0.0	0.0	1	1.00926292	-17.0867	115.0	9	1.1	0.9				
	1004	1	0.0	0.0	0.0	0.0	1	1.0130707	-18.933998	230.0	9	1.1	0.9				
	1005	1	0.0	0.0	0.0	0.0	1	1.00557613	-16.077157	115.0	9	1.1	0.9				
	1006	2	0.0	0.0	0.0	0.0	1	1.0	-13.905591	13.8	9	1.1	0.9				
	1007	1	7.008	1.986	0.0	-0.8199999999999998	1	1.01999998	-18.467213	115.0	9	1.1	0.9				
	1008	2	0.0	0.0	0.0	0.0	1	1.01928508	-8.605208	22.0	9	1.1	0.9				
	1009	2	0.0	0.0	0.0	0.0	1	1.00924015	-5.309597	13.8	9	1.1	0.9				
	1010	1	0.0	0.0	0.0	-3.07	1	1.01999998	-16.792355	115.0	9	1.1	0.9				
	1011	2	0.0	0.0	0.0	0.0	1	1.0202111	-15.009826	22.0	9	1.1	0.9				
	1012	1	2.985	0.8460000000000001	0.0	9.5	1	1.00599205	-25.342783	115.0	9	1.1	0.9				
	1013	1	29.226	8.280000000000001	0.0	0.0	1	1.00567722	-15.436564	115.0	9	1.1	0.9				
	1014	1	2.22	0.629	0.0	0.0	1	1.01235044	-11.913249	115.0	9	1.1	0.9				
	1015	1	7.509	2.128	0.0	0.0	1	1.02181768	-18.214501	115.0	9	1.1	0.9				
	1016	1	2.889	0.819	0.0	30.0	1	1.01740694	-15.485448	115.0	9	1.1	0.9				
	1017	1	18.345	5.198	0.0	0.0	1	0.98167342	-21.426221	115.0	9	1.1	0.9				
	1018	1	0.069	0.02	0.0	0.0	1	0.99114686	-20.216148	22.0	9	1.1	0.9				
	1019	1	61.77600000000001	17.503	0.0	142.98	1	0.99949187	-22.320416	115.0	9	1.1	0.9				
	1020	1	0.0	0.0	0.0	67.23	1	1.01999998	-15.230062999999998	115.0	9	1.1	0.9				
	1021	2	0.0	0.0	0.0	0.0	1	1.0	-8.606761000000002	13.8	9	1.1	0.9				
	1022	1	0.0	0.0	0.0	0.0	1	1.01242304	-16.204692	115.0	9	1.1	0.9				
	1023	2	0.0	0.0	0.0	0.0	1	1.00999999	-7.300393	13.8	9	1.1	0.9				
	1024	1	63.039	17.861	0.0	0.0	1	0.99449503	-19.200249	115.0	9	1.1	0.9				
	1025	1	0.0	0.0	0.0	0.0	1	1.0162884	-14.170406	115.0	9	1.1	0.9				
	1026	2	0.0	0.0	0.0	0.0	1	1.0	-4.641462	13.8	9	1.1	0.9				
	1027	1	101.211	28.676999999999996	0.0	75.0	1	1.00530469	-25.833336	115.0	9	1.1	0.9				
	1028	1	10.014	2.8369999999999997	0.0	0.0	1	1.01541591	-17.717137	115.0	9	1.1	0.9				
	1029	1	83.184	23.569	0.0	40.0	1	1.00241745	-24.858888	115.0	9	1.1	0.9				
	1030	1	24.627	6.978	0.0	15.0	1	1.0122298	-13.411431	115.0	9	1.1	0.9				
	1031	1	9.246	2.62	0.0	0.0	1	1.01218879	-17.672259	115.0	9	1.1	0.9				
	1032	1	0.0	0.0	0.0	0.0	1	1.00065839	-12.280471	115.0	9	1.1	0.9				
	1033	2	0.0	0.0	0.0	50.0	1	1.01675415	-16.898515	22.0	9	1.1	0.9				
	1034	1	0.0	0.0	0.0	0.0	1	1.00453448	-14.320349	115.0	9	1.1	0.9				
	1035	1	0.0	0.0	0.0	0.0	1	1.0	-11.030416	22.0	9	1.1	0.9				
	1036	2	13.596	3.8519999999999994	0.0	0.0	1	0.99762475	-12.526972	22.0	9	1.1	0.9				
	1037	2	102.237	28.967	0.0	0.0	1	0.97450435	-22.5448	22.0	9	1.1	0.9				
	1038	2	0.0	0.0	0.0	0.0	1	1.01656735	-7.646607000000001	22.0	9	1.1	0.9				
	1039	2	0.0	0.0	0.0	0.0	1	1.0	-2.263052	22.0	9	1.1	0.9				
	1040	2	44.358	12.567999999999998	0.0	0.0	1	0.99401456	-20.48004	22.0	9	1.1	0.9				
	1041	1	0.0	0.0	0.0	0.0	1	1.00177467	-15.107504000000002	115.0	9	1.1	0.9				
	1042	1	0.0	0.0	0.0	0.0	1	1.00177467	-15.107504000000002	13.8	9	1.1	0.9				
	1043	2	0.0	0.0	0.0	0.0	1	1.0	-11.864177	13.8	9	1.1	0.9				
	1044	1	14.681999999999999	4.159	0.0	0.0	1	1.00675547	-25.963882	115.0	9	1.1	0.9				
	1045	1	98.562	27.926000000000002	0.0	0.0	1	0.97742546	-24.447556	115.0	9	1.1	0.9				
	1046	1	11.085	3.141	0.0	12.0	1	1.01763439	-22.491396	115.0	9	1.1	0.9				
	1047	1	0.0	0.0	0.0	0.0	1	1.00525081	-13.35005	115.0	9	1.1	0.9				
	1048	1	0.0	0.0	0.0	0.0	1	1.00525081	-13.35005	18.0	9	1.1	0.9				
	1049	1	0.0	0.0	0.0	0.0	1	1.00525081	-13.35005	18.0	9	1.1	0.9				
	1050	2	0.0	0.0	0.0	0.0	1	1.0	-8.284789	18.0	9	1.1	0.9				
	1051	2	0.0	0.0	0.0	0.0	1	1.0	-6.807389	18.0	9	1.1	0.9				
	1052	2	0.0	0.0	0.0	0.0	1	1.0	-9.134369	18.0	9	1.1	0.9				
	1053	1	0.0	0.0	0.0	0.0	1	1.01740885	-17.336159	230.0	9	1.1	0.9				
	1054	1	14.987999999999998	4.246	0.0	0.0	1	1.0036844	-22.292332	115.0	9	1.1	0.9				
	1055	1	3.978	1.127	0.0	0.0	1	1.001405	-18.129562	115.0	9	1.1	0.9				
	1056	1	0.0	0.0	0.0	59.97	1	1.01999998	-21.819611	115.0	9	1.1	0.9				
	1057	1	0.0	0.0	0.0	0.0	1	1.01999998	-21.819611	18.0	9	1.1	0.9				
	1058	1	13.455	3.8129999999999997	0.0	0.0	1	1.01937377	-11.220883	115.0	9	1.1	0.9				
	1059	1	0.0	0.0	0.0	0.0	1	1.01937377	-11.220883	22.0	9	1.1	0.9				
	1060	1	0.0	0.0	0.0	0.0	1	1.01937377	-11.220883	22.0	9	1.1	0.9				
	1061	1	0.0	0.0	0.0	0.0	1	1.00655663	-17.219363	115.0	9	1.1	0.9				
	1062	1	0.0	0.0	0.0	0.0	1	1.00655663	-17.219363	13.8	9	1.1	0.9				
	1063	1	0.0	0.0	0.0	0.0	1	1.00655663	-17.219363	13.8	9	1.1	0.9				
	1064	1	123.759	35.065	0.0	0.0	1	0.97203445	-24.153272	115.0	9	1.1	0.9				
	1065	1	0.0	0.0	0.0	0.0	1	1.00426054	-14.932578	115.0	9	1.1	0.9				
	1066	2	0.0	0.0	0.0	0.0	1	1.0	-7.399054	13.8	9	1.1	0.9				
	1067	1	101.55000000000001	28.773	0.0	0.0	1	0.99859524	-15.682480000000002	115.0	9	1.1	0.9				
	1068	1	59.403	16.830000000000002	0.0	0.0	1	0.98680341	-16.436895	115.0	9	1.1	0.9				
	1069	1	0.0	0.0	0.0	0.0	1	1.02255976	-8.732588	115.0	9	1.1	0.9				
	1070	2	0.0	0.0	0.0	0.0	1	1.03999996	-4.228777	13.8	9	1.1	0.9				
	1071	1	91.464	25.915	0.0	0.0	1	0.98702675	-21.47404	115.0	9	1.1	0.9				
	1072	2	0.0	0.0	0.0	0.0	1	1.00999999	-12.110027	18.0	9	1.1	0.9				
	1073	2	0.0	0.0	0.0	0.0	2	1.00999999	-5.681972	22.0	10	1.1	0.9				
	1074	2	0.0	0.0	0.0	0.0	2	1.00999999	-7.738008000000001	22.0	10	1.1	0.9				
	1075	2	0.0	0.0	0.0	0.0	1	1.00999999	-10.505543000000001	18.0	9	1.1	0.9				
	1076	1	0.0	0.0	0.0	0.0	1	0.98702675	-21.47404	18.0	9	1.1	0.9				
	1077	1	0.0	0.0	0.0	0.0	1	0.98702675	-21.47404	18.0	9	1.1	0.9				
	1078	2	0.0	0.0	0.0	0.0	1	1.00999999	-11.02466	18.0	9	1.1	0.9				
	1079	1	0.0	0.0	0.0	0.0	1	1.01621413	-38.582858	500.0	9	1.1	0.9				
	1080	2	0.0	0.0	0.0	0.0	1	1.00999999	-10.448677	18.0	9	1.1	0.9				
	1081	1	0.0	0.0	0.0	56.89999999999999	1	1.01999998	-18.691287	230.0	9	1.1	0.9				
	1082	1	0.0	0.0	0.0	0.0	1	1.01941252	-5.910392	115.0	9	1.1	0.9				
	1083	1	39.945	11.318	0.0	26.150000000000002	1	1.01886177	-9.886742	115.0	9	1.1	0.9				
	1084	2	0.0	0.0	0.0	0.0	3	1.02251995	-16.467205	22.0	27	1.1	0.9				
	1085	1	21.297	6.034000000000001	0.0	0.0	1	1.00898695	-15.342869000000002	115.0	9	1.1	0.9				
	1086	1	39.672	11.24	0.0	30.0	1	1.01537406	-17.585056	115.0	9	1.1	0.9				
	1087	1	0.909	0.258	0.0	8.66	1	1.01999998	-16.125402	115.0	9	1.1	0.9				
	1088	1	0.0	0.0	0.0	0.0	1	1.0	-11.878467	115.0	9	1.1	0.9				
	1089	1	40.605000000000004	11.504	0.0	0.0	1	0.98063183	-21.306753	115.0	9	1.1	0.9				
	1090	1	0.0	0.0	0.0	0.0	1	1.01999998	-16.145053	115.0	9	1.1	0.9				
	1091	1	11.622	3.293	0.0	0.0	1	1.02483141	-31.017726	161.0	9	1.1	0.9				
	1112	2	0.0	0.0	0.0	0.0	3	1.01480258	-16.483384	22.0	27	1.1	0.9				
	1113	2	0.0	0.0	0.0	0.0	3	1.0204972	-16.897979	22.0	27	1.1	0.9				
	1114	2	0.0	0.0	0.0	0.0	3	1.01755035	-22.172623	22.0	27	1.1	0.9				
	1115	1	0.0	0.0	0.0	0.0	3	1.01652181	-22.124670000000002	22.0	27	1.1	0.9				
	1116	1	0.0	0.0	0.0	0.0	3	1.01652181	-22.124670000000002	22.0	27	1.1	0.9				
	1117	1	0.0	0.0	0.0	0.0	3	1.01652181	-22.124670000000002	22.0	27	1.1	0.9				
	1118	2	0.0	0.0	0.0	0.0	3	1.0171566	-23.627709	22.0	27	1.1	0.9				
	1119	2	0.0	0.0	0.0	0.0	3	1.01572418	-17.828457	22.0	27	1.1	0.9				
	1168	2	0.0	0.0	0.0	0.0	4	1.02237308	-39.371147	22.0	21	1.1	0.9				
	1169	2	0.0	0.0	0.0	0.0	4	1.01707327	-49.910217	22.0	19	1.1	0.9				
	1170	2	0.0	0.0	0.0	0.0	4	1.01999998	-50.725957	22.0	19	1.1	0.9				
	1171	2	0.0	0.0	0.0	0.0	4	1.01999998	-50.725957	22.0	19	1.1	0.9				
	1172	1	0.0	0.0	0.0	0.0	4	1.01999998	-50.725957	22.0	19	1.1	0.9				
	1173	2	0.0	0.0	0.0	0.0	4	1.01999998	-50.725957	22.0	19	1.1	0.9				
	1174	2	0.0	0.0	0.0	0.0	4	1.01999998	-50.725957	22.0	19	1.1	0.9				
	1175	2	0.0	0.0	0.0	0.0	4	1.01999998	-50.725957	22.0	19	1.1	0.9				
	1176	2	0.0	0.0	0.0	0.0	4	1.01999998	-50.725957	22.0	19	1.1	0.9				
	1177	2	0.0	0.0	0.0	0.0	4	1.01999998	-50.725957	22.0	19	1.1	0.9				
	1178	2	0.0	0.0	0.0	0.0	4	1.01999998	-50.725957	22.0	19	1.1	0.9				
	1179	2	0.0	0.0	0.0	0.0	4	1.01999998	-50.725957	22.0	19	1.1	0.9				
	1180	2	0.0	0.0	0.0	0.0	4	0.99946594	-61.602118000000004	22.0	19	1.1	0.9				
	1181	2	0.0	0.0	0.0	0.0	4	1.0305723	-51.459011000000004	22.0	20	1.1	0.9				
	1254	1	0.0	0.0	0.0	0.0	5	1.00999999	-59.904119	22.0	17	1.1	0.9				
	1255	1	0.0	0.0	0.0	0.0	5	1.00999999	-59.904119	22.0	17	1.1	0.9				
	1256	1	0.0	0.0	0.0	0.0	5	1.00999999	-59.904119	22.0	17	1.1	0.9				
	1257	2	0.0	0.0	0.0	0.0	5	1.00999999	-59.904119	22.0	17	1.1	0.9				
	1258	2	0.0	0.0	0.0	0.0	5	1.00999999	-59.904119	22.0	17	1.1	0.9				
	1259	1	0.0	0.0	0.0	0.0	5	1.00999999	-59.904119	22.0	17	1.1	0.9				
	1260	2	0.0	0.0	0.0	0.0	5	1.00999999	-59.904119	22.0	17	1.1	0.9				
	1261	2	0.0	0.0	0.0	0.0	5	1.00999999	-59.904119	22.0	17	1.1	0.9				
	1341	1	0.0	0.0	0.0	0.0	6	1.02717519	-49.65216900000001	22.0	23	1.1	0.9				
	1342	1	0.0	0.0	0.0	0.0	6	1.02717519	-49.65216900000001	22.0	23	1.1	0.9				
	1343	2	0.0	0.0	0.0	0.0	6	1.02717519	-49.65216900000001	22.0	23	1.1	0.9				
	1344	1	0.0	0.0	0.0	0.0	6	1.02717519	-49.65216900000001	22.0	23	1.1	0.9				
	1345	1	0.0	0.0	0.0	0.0	6	1.02717519	-49.65216900000001	22.0	23	1.1	0.9				
	1346	1	0.0	0.0	0.0	0.0	6	1.02717519	-49.65216900000001	22.0	23	1.1	0.9				
	1347	1	0.0	0.0	0.0	0.0	6	1.02717519	-49.65216900000001	22.0	23	1.1	0.9				
	1348	1	0.0	0.0	0.0	0.0	6	1.02717519	-49.65216900000001	22.0	23	1.1	0.9				
	1349	2	0.0	0.0	0.0	0.0	6	1.02717519	-49.65216900000001	22.0	23	1.1	0.9				
	1350	2	0.0	0.0	0.0	0.0	6	1.02717519	-49.65216900000001	22.0	23	1.1	0.9				
	1351	1	0.0	0.0	0.0	0.0	6	1.02717519	-49.65216900000001	22.0	23	1.1	0.9				
	1476	2	0.0	0.0	0.0	0.0	7	1.03080249	-34.570962	22.0	5	1.1	0.9				
	1477	2	0.0	0.0	0.0	0.0	7	1.02587342	-26.096847	22.0	4	1.1	0.9				
	1478	2	0.0	0.0	0.0	0.0	7	1.02587342	-26.096847	22.0	4	1.1	0.9				
	1479	2	0.0	0.0	0.0	0.0	7	1.02587342	-26.096847	22.0	4	1.1	0.9				
	1480	2	0.0	0.0	0.0	0.0	7	1.02587342	-26.096847	22.0	4	1.1	0.9				
	1481	2	0.0	0.0	0.0	0.0	7	1.02587342	-26.096847	22.0	4	1.1	0.9				
	1482	2	0.0	0.0	0.0	0.0	7	1.02587342	-26.096847	22.0	4	1.1	0.9				
	1483	2	0.0	0.0	0.0	0.0	7	1.02011502	-29.008011	22.0	6	1.1	0.9				
	1484	2	0.0	0.0	0.0	0.0	7	1.02011502	-29.008011	22.0	6	1.1	0.9				
	1485	2	0.0	0.0	0.0	0.0	7	1.02198434	-32.101961	22.0	6	1.1	0.9				
	1486	2	0.0	0.0	0.0	0.0	7	1.0	-33.695263	22.0	4	1.1	0.9				
	1487	2	0.0	0.0	0.0	0.0	7	1.0	-33.695263	22.0	4	1.1	0.9				
	1488	2	0.0	0.0	0.0	0.0	7	1.03999996	-27.550632	22.0	2	1.1	0.9				
	1489	2	0.0	0.0	0.0	0.0	7	1.03999996	-27.550632	22.0	2	1.1	0.9				
	1490	2	0.0	0.0	0.0	0.0	7	1.03999996	-27.550632	22.0	2	1.1	0.9				
	1491	2	0.0	0.0	0.0	0.0	7	1.03999996	-27.550632	22.0	2	1.1	0.9				
	1492	2	0.0	0.0	0.0	0.0	7	1.03999996	-27.550632	22.0	2	1.1	0.9				
	1493	2	0.0	0.0	0.0	0.0	7	1.03999996	-27.550632	22.0	2	1.1	0.9				
	1494	2	0.0	0.0	0.0	0.0	7	1.03999996	-27.550632	22.0	2	1.1	0.9				
	1495	2	0.0	0.0	0.0	0.0	7	1.03999996	-27.550632	22.0	2	1.1	0.9				
	1496	2	0.0	0.0	0.0	0.0	7	1.03999996	-27.550632	22.0	2	1.1	0.9				
	1497	2	0.0	0.0	0.0	0.0	7	1.03999996	-27.550632	22.0	2	1.1	0.9				
	1498	2	0.0	0.0	0.0	0.0	7	1.03999996	-27.550632	22.0	2	1.1	0.9				
	1499	2	0.0	0.0	0.0	0.0	7	1.03999996	-27.614318	22.0	2	1.1	0.9				
	1500	2	0.0	0.0	0.0	0.0	7	1.03999996	-27.614318	22.0	2	1.1	0.9				
	1501	2	0.0	0.0	0.0	0.0	7	1.03999996	-27.614318	22.0	2	1.1	0.9				
	1502	2	0.0	0.0	0.0	0.0	7	1.03999996	-27.614318	22.0	2	1.1	0.9				
	1503	2	0.0	0.0	0.0	0.0	7	1.03999996	-27.614318	22.0	2	1.1	0.9				
	1504	2	0.0	0.0	0.0	0.0	7	1.03999996	-27.614318	22.0	2	1.1	0.9				
	1505	2	0.0	0.0	0.0	0.0	7	1.03999996	-27.614318	22.0	2	1.1	0.9				
	1506	2	0.0	0.0	0.0	0.0	7	1.03999996	-27.614318	22.0	2	1.1	0.9				
	1507	2	0.0	0.0	0.0	0.0	7	1.03999996	-27.614318	22.0	2	1.1	0.9				
	1508	1	0.0	0.0	0.0	0.0	7	1.03999996	-27.614318	22.0	2	1.1	0.9				
	1509	2	0.0	0.0	0.0	0.0	7	1.03999996	-27.614318	22.0	2	1.1	0.9				
	1538	1	0.0	0.0	0.0	0.0	8	1.00822651	-59.865543	22.0	7	1.1	0.9				
	1539	1	0.0	0.0	0.0	0.0	8	1.00822651	-59.865543	22.0	7	1.1	0.9				
	1540	1	0.0	0.0	0.0	0.0	8	1.01725936	-47.081348	22.0	7	1.1	0.9				
	1541	1	0.0	0.0	0.0	0.0	8	1.02701139	-47.490401	22.0	7	1.1	0.9				
	1542	2	0.0	0.0	0.0	0.0	8	1.02701139	-47.490401	22.0	7	1.1	0.9				
	1543	1	0.0	0.0	0.0	0.0	8	1.02220857	-38.944431	22.0	7	1.1	0.9				
	1544	1	0.0	0.0	0.0	0.0	8	1.02220857	-38.944431	22.0	7	1.1	0.9				
	2001	1	48.357	13.701	0.0	0.0	2	1.00175178	-59.982148	161.0	11	1.1	0.9				
	2002	1	0.0	0.0	0.0	0.0	2	1.01106095	-61.566628	500.0	11	1.1	0.9				
	2003	1	0.0	0.0	0.0	0.0	2	1.00933814	-63.828548	161.0	11	1.1	0.9				
	2004	1	0.0	0.0	0.0	0.0	2	1.01106095	-61.566628	13.8	11	1.1	0.9				
	2005	1	0.0	0.0	0.0	0.0	2	1.01106095	-61.566628	13.8	11	1.1	0.9				
	2006	1	0.0	0.0	0.0	0.0	2	1.01106095	-61.566628	13.8	11	1.1	0.9				
	2007	1	9.54	2.703	0.0	0.0	2	1.00250876	-59.751902	161.0	11	1.1	0.9				
	2008	1	8.061	2.284	0.0	0.0	2	1.01612961	-32.833006	161.0	10	1.1	0.9				
	2009	1	39.135	11.088	0.0	113.65	2	1.01999998	-45.215388	161.0	11	1.1	0.9				
	2010	1	56.805	16.095	0.0	22.39	2	1.01999998	-36.405086	161.0	10	1.1	0.9				
	2011	1	0.0	0.0	0.0	0.0	2	1.03887033	-32.100981	500.0	10	1.1	0.9				
	2012	1	0.0	0.0	0.0	0.0	2	1.02709734	-29.869240000000005	161.0	10	1.1	0.9				
	2013	2	0.0	0.0	0.0	0.0	2	1.03051019	-29.76103	18.0	10	1.1	0.9				
	2014	1	25.427999999999997	7.205	0.0	0.0	2	1.01448798	-33.408935	161.0	10	1.1	0.9				
	2015	1	4.686	1.328	0.0	0.0	2	1.00607824	-63.292788	161.0	11	1.1	0.9				
	2016	1	69.267	19.626	0.0	0.0	2	1.00601876	-69.954797	161.0	11	1.1	0.9				
	2017	1	0.0	0.0	0.0	-200.0	2	1.02839184	-32.246829	500.0	10	1.1	0.9				
	2018	1	0.0	0.0	0.0	0.0	2	1.02649224	-31.456708999999996	161.0	10	1.1	0.9				
	2019	1	0.0	0.0	0.0	0.0	2	1.02839184	-32.246829	20.0	10	1.1	0.9				
	2020	1	47.973	13.592	0.0	0.0	2	0.99517488	-44.885384	161.0	11	1.1	0.9				
	2021	1	0.0	0.0	0.0	0.0	2	1.01387322	-56.702369	500.0	11	1.1	0.9				
	2022	1	11.565	3.277	0.0	0.0	2	1.01001012	-58.63755	161.0	11	1.1	0.9				
	2023	2	0.0	0.0	0.0	0.0	2	1.01999998	-55.13952	13.8	11	1.1	0.9				
	2024	2	0.0	0.0	0.0	0.0	2	1.01999998	-54.474075	13.8	11	1.1	0.9				
	2025	1	39.618	11.225	0.0	0.0	2	0.99407405	-44.124135	161.0	11	1.1	0.9				
	2026	1	18.57	5.261	0.0	0.0	2	1.02648044	-31.081493000000002	161.0	10	1.1	0.9				
	2027	1	3.5549999999999997	1.007	0.0	0.0	2	1.00219655	-60.413016	161.0	11	1.1	0.9				
...
];

%% generator data
%    bus    Pg    Qg    Qmax    Qmin    Vg    mBase    status    Pmax    Pmin    Pc1    Pc2    Qc1min    Qc1max    Qc2min    Qc2max    ramp_agc    ramp_10    ramp_30    ramp_q    apf
mpc.gen = [
	1001	158.25	-30.380000000000003	44.94	-30.380000000000003	1.01	100.0	1	211.0	63.3															
	1004	158.25	-30.380000000000003	44.94	-30.380000000000003	1.01	253.2	0	211.0	63.3															
	1006	25.730000000000004	-4.354	7.31	-4.94	1.0	41.16	1	34.3	10.29															
	1008	208.5	-40.03	59.209999999999994	-40.03	1.0	100.0	1	278.0	83.4															
	1009	61.870000000000005	-11.88	17.57	-11.88	1.0	99.0	1	82.5	24.75															
	1011	9.972	0.0	0.0	0.0	1.0	12.0	1	10.0	3.0															
	1018	0.0	0.0	91.01	-19.85	1.0	100.0	0	178.8	53.64															
	1021	149.63	-23.151	42.49	-28.73	1.0	239.4	1	199.5	59.85															
	1023	135.0	2.262	38.34	-25.920000000000005	1.01	216.0	1	180.0	54.0															
	1026	93.15	-3.4230000000000005	26.450000000000003	-17.88	1.0	149.04	1	124.2	37.26															
	1033	95.233	-10.6	48.61	-10.6	1.01	333.6	1	95.5	28.65															
	1035	0.0	0.0	145.83	-31.8	1.01	108.0	0	286.5	85.95															
	1036	112.5	-21.6	31.95	-21.6	1.0	100.0	1	150.0	45.0															
	1037	86.62	24.6	24.6	-16.63	1.04	100.0	1	115.5	34.65															
	1038	56.25	-0.293	15.97	-10.8	1.0	100.0	1	75.0	22.5															
	1039	114.36999999999999	31.032	32.48	-21.96	1.02	177.0	1	152.5	45.75															
	1040	27.0	7.670000000000001	7.670000000000001	-5.18	1.02	100.0	1	36.0	10.8															
	1042	0.0	-10.549	25.96	-17.55	1.0	146.28	0	121.9	36.57															
	1043	44.1	-1.162	12.520000000000001	-8.47	1.0	70.56	1	58.8	17.64															
	1048	0.0	0.0	165.53	-36.1	1.0	390.24	0	325.2	97.56															
	1049	0.0	0.0	165.53	-36.1	1.0	390.24	0	325.2	97.56															
	1050	89.15	-4.14	45.5	-9.92	1.0	107.28	1	89.4	26.82															
	1051	89.15	-2.881	45.5	-9.92	1.0	107.28	1	89.4	26.82															
	1052	89.15	-7.036	45.5	-9.92	1.0	107.28	1	89.4	26.82															
	1053	0.0	0.0	91.01	-19.85	1.0	214.56	0	178.8	53.64															
	1057	0.0	-7.656000000000001	25.56	-17.28	1.0	144.0	0	120.0	36.0															
	1059	0.0	0.0	2.85	-0.62	1.04	6.72	0	5.6	1.68															
	1060	0.0	0.0	1.02	-0.22	1.04	2.4	0	2.0	0.6															
	1062	0.0	0.0	0.0	0.0	1.01	1.8	0	1.5	0.45000000000000007															
	1063	0.0	0.0	0.0	0.0	1.01	276.0	0	229.99999999999997	69.0															
	1066	106.88	-0.83	30.349999999999998	-20.52	1.0	171.0	1	142.5	42.75															
	1070	120.38	25.495	34.19	-23.11	1.04	192.6	1	160.5	48.15															
	1072	191.594	30.817	97.8	-21.33	1.01	230.56	1	192.13	57.64															
	1073	136.28	-26.16	38.7	-26.16	1.0	230.56	1	181.7	54.510000000000005															
	1074	216.45	-0.025	61.47	-41.56	1.04	230.56	1	288.6	86.58															
	1075	191.594	34.381	97.8	-21.33	1.01	230.56	1	192.13	57.64															
	1076	0.0	0.0	97.8	-21.33	1.01	230.56	0	192.13	57.64															
	1077	0.0	0.0	97.8	-21.33	1.01	230.56	0	192.13	57.64															
	1078	95.233	18.159	48.61	-10.6	1.01	114.6	1	95.5	28.65															
	1079	95.233	-10.6	48.61	-10.6	1.01	114.6	0	95.5	28.65															
	1080	95.233	14.904	48.61	-10.6	1.01	114.6	1	95.5	28.65															
	1081	0.0	0.0	145.83	-31.8	1.01	343.8	0	286.5	85.95															
	1082	112.5	-21.6	31.95	-21.6	1.0	180.0	0	150.0	45.0															
	1084	180.75	51.33	51.33	-34.7	1.04	138.6	1	241.0	72.3															
	1088	56.25	-0.293	15.97	-10.8	1.0	90.0	0	75.0	22.5															
	1090	114.36999999999999	31.032	32.48	-21.96	1.02	183.0	0	152.5	45.75															
	1090	27.0	7.670000000000001	7.670000000000001	-5.18	1.02	43.2	0	36.0	10.8															
	1112	101.25	-19.44	28.76	-19.44	1.0	100.0	1	135.0	40.5															
	1113	94.88	-18.22	26.94	-18.22	1.0	100.0	1	126.49999999999999	37.95															
	1114	85.5	24.28	24.28	-16.42	1.02	100.0	1	113.99999999999999	34.2															
	1115	0.0	0.0	26.11	-5.69	1.04	100.0	0	51.300000000000004	15.39															
	1116	0.0	0.0	26.11	-5.69	1.04	100.0	0	51.300000000000004	15.39															
	1117	0.0	0.0	26.11	-5.69	1.04	100.0	0	51.300000000000004	15.39															
	1118	75.9	21.56	21.56	-14.57	1.03	100.0	1	101.2	30.36															
	1119	68.62	-13.18	19.49	-13.18	1.0	100.0	1	91.5	27.449999999999996															
	1168	150.07	42.62	42.62	-28.809999999999995	1.04	100.0	1	200.1	60.03000000000001															
	1169	152.25	43.24	43.24	-29.23	1.03	100.0	1	202.99999999999997	60.9															
	1170	74.791	21.267	38.17	-8.33	1.02	100.0	1	75.0	22.5															
	1171	183.257	21.267	93.54	-20.4	1.02	100.0	1	183.77	55.13															
	1172	0.0	0.0	12.22	-2.66	1.02	100.0	0	24.0	7.200000000000001															
	1173	60.83	21.267	31.05	-6.77	1.02	100.0	1	61.0	18.3															
	1174	10.371	5.29	5.29	-1.15	1.02	100.0	1	10.4	3.12															
	1175	136.478	21.267	135.9	-29.64	1.02	100.0	1	267.0	80.1															
	1176	155.896	21.267	135.9	-29.64	1.02	100.0	1	267.0	80.1															
	1177	155.896	21.267	135.9	-29.64	1.02	100.0	1	267.0	80.1															
	1178	183.257	21.267	93.54	-20.4	1.02	100.0	1	183.77	55.13															
	1179	183.257	21.267	93.54	-20.4	1.02	100.0	1	183.77	55.13															
	1180	151.2	42.94	42.94	-29.03	1.02	100.0	1	201.6	60.480000000000004															
	1181	69.0	-13.25	19.6	-13.25	1.0	100.0	1	92.0	27.6															
	1254	0.0	0.0	147.1	-32.08	1.01	100.0	0	289.0	86.7															
	1255	0.0	0.0	147.1	-32.08	1.01	100.0	0	289.0	86.7															
	1256	0.0	0.0	147.1	-32.08	1.01	100.0	0	289.0	86.7															
	1257	288.193	19.061	147.1	-32.08	1.01	100.0	1	289.0	86.7															
	1258	288.193	19.061	147.1	-32.08	1.01	100.0	1	289.0	86.7															
	1259	0.0	0.0	147.1	-32.08	1.01	100.0	0	289.0	86.7															
	1260	140.905	19.061	71.92	-15.68	1.01	100.0	1	141.3	42.39															
	1261	140.905	19.061	71.92	-15.68	1.01	100.0	1	141.3	42.39															
	1341	0.0	0.0	6.11	-1.33	1.04	100.0	0	12.0	3.6000000000000005															
	1342	0.0	0.0	26.21	-5.72	1.04	100.0	0	51.5	15.45															
	1343	31.3	52.43	52.43	-11.43	1.04	100.0	1	103.0	30.9															
	1344	0.0	0.0	1.17	-0.26	1.04	100.0	0	2.3	0.69															
	1345	0.0	0.0	2.34	-0.51	1.04	100.0	0	4.6	1.38															
	1346	0.0	0.0	0.76	-0.17	1.04	100.0	0	1.5	0.45000000000000007															
	1347	0.0	0.0	2.04	-0.44	1.04	100.0	0	4.0	1.2															
	1348	0.0	0.0	3.26	-0.71	1.04	100.0	0	6.4	1.92															
	1349	110.309	184.77	184.77	-40.29	1.04	100.0	1	363.0	108.89999999999999															
	1350	110.309	184.77	184.77	-40.29	1.04	100.0	1	363.0	108.89999999999999															
	1351	0.0	0.0	26.21	-5.72	1.04	100.0	0	51.5	15.45															
	1476	541.284	276.29	276.29	-60.25	1.04	100.0	1	542.8	162.84															
	1477	71.799	-7.99	36.65	-7.99	1.0	100.0	1	72.0	21.6															
	1478	71.799	-7.99	36.65	-7.99	1.0	100.0	1	72.0	21.6															
	1479	71.799	-7.99	36.65	-7.99	1.0	100.0	1	72.0	21.6															
	1480	71.799	-7.99	36.65	-7.99	1.0	100.0	1	72.0	21.6															
	1481	143.598	-15.98	73.3	-15.98	1.0	100.0	1	144.0	43.2															
	1482	445.15399999999994	-49.55	227.21999999999997	-49.55	1.0	100.0	1	446.4	133.92															
	1483	62.924	32.12	32.12	-7.000000000000001	1.04	100.0	1	63.1	18.93															
	1484	309.134	157.79	157.79	-34.41	1.04	100.0	1	310.0	93.0															
	1485	102.11399999999999	52.12	52.12	-11.37	1.03	100.0	1	102.4	30.72															
	1486	87.954	12.118	44.89	-9.79	1.0	100.0	1	88.2	26.46															
	1487	87.954	12.118	44.89	-9.79	1.0	100.0	1	88.2	26.46															
	1488	2.066	3.46	3.46	-0.75	1.04	100.0	1	6.800000000000001	2.04															
	1489	52.32800000000001	50.12	87.65	-19.11	1.04	100.0	1	172.2	51.66															
	1490	52.32800000000001	50.12	87.65	-19.11	1.04	100.0	1	172.2	51.66															
	1491	34.187	50.12	57.26	-12.49	1.04	100.0	1	112.5	33.75															
	1492	34.187	50.12	57.26	-12.49	1.04	100.0	1	112.5	33.75															
	1493	34.187	50.12	57.26	-12.49	1.04	100.0	1	112.5	33.75															
	1494	34.187	50.12	57.26	-12.49	1.04	100.0	1	112.5	33.75															
	1495	58.072	50.12	97.27	-21.21	1.04	100.0	1	191.1	57.330000000000005															
	1496	52.32800000000001	50.12	87.65	-19.11	1.04	100.0	1	172.2	51.66															
	1497	52.32800000000001	50.12	87.65	-19.11	1.04	100.0	1	172.2	51.66															
	1498	52.32800000000001	50.12	87.65	-19.11	1.04	100.0	1	172.2	51.66															
	1499	30.55	27.276	51.16	-11.16	1.04	100.0	1	100.51999999999998	30.159999999999997															
	1500	39.505	27.276	66.17	-14.429999999999998	1.04	100.0	1	130.0	39.0															
	1501	39.505	27.276	66.17	-14.429999999999998	1.04	100.0	1	130.0	39.0															
	1502	30.55	27.276	51.16	-11.16	1.04	100.0	1	100.51999999999998	30.159999999999997															
	1503	30.55	27.276	51.16	-11.16	1.04	100.0	1	100.51999999999998	30.159999999999997															
	1504	30.55	27.276	51.16	-11.16	1.04	100.0	1	100.51999999999998	30.159999999999997															
	1505	30.55	27.276	51.16	-11.16	1.04	100.0	1	100.51999999999998	30.159999999999997															
	1506	30.55	27.276	51.16	-11.16	1.04	100.0	1	100.51999999999998	30.159999999999997															
	1507	22.791	27.276	38.17	-8.33	1.04	100.0	1	75.0	22.5															
	1508	0.0	0.0	41.23	-8.99	1.04	100.0	0	81.0	24.3															
	1509	3.5549999999999997	5.96	5.96	-1.3	1.04	100.0	1	11.7	3.51															
	1538	0.0	0.0	1.86	-0.49	1.03	100.0	0	4.0	1.2															
	1539	0.0	0.0	111.50999999999999	-29.189999999999998	1.03	100.0	0	239.3	71.79															
	1540	0.0	0.0	11.2	-2.44	1.0	100.0	0	22.0	6.6000000000000005															
	1541	0.0	0.0	81.36	-21.3	1.0	100.0	0	174.6	52.38															
	1542	174.112	-21.3	81.36	-21.3	1.0	100.0	1	174.6	52.38															
	1543	0.0	0.0	53.44	-11.65	1.0	100.0	0	105.0	31.5															
	1544	0.0	0.0	49.98	-10.9	1.0	100.0	0	98.2	29.460000000000004															
	2004	0.0	0.0	199.43	-43.49	1.02	470.16	0	391.8	117.54															
	2005	0.0	0.0	199.43	-43.49	1.02	470.16	0	391.8	117.54															
	2006	0.0	0.0	199.43	-43.49	1.02	470.16	0	391.8	117.54															
	2013	150.45	-28.89	42.73	-28.89	1.0	240.72	1	200.59999999999997	60.18															
	2019	0.0	46.43	46.43	-31.39	1.04	261.6	0	218.00000000000003	65.4															
	2023	83.097	18.16	42.42	-9.25	1.02	100.0	1	83.33	25.0															
	2024	166.205	26.527	84.83	-18.5	1.02	200.0	1	166.67	50.0															
	2042	59.699999999999996	-11.46	16.95	-11.46	1.01	95.52	1	79.6	23.88															
	2056	0.0	0.0	2.8	-0.73	0.99	7.2	0	6.0	1.8000000000000003															
	2057	573.575	-47.07	335.52	-87.84	0.99	864.0	1	720.0	216.0															
	2059	60.0	-11.52	17.04	-11.52	1.0	96.0	1	80.0	24.0															
	2062	101.55000000000001	-4.842	28.84	-19.5	1.02	162.48	1	135.4	40.62															
	2071	112.5	-0.815	31.95	-21.6	1.0	180.0	1	150.0	45.0															
	2076	22.5	6.39	6.39	-4.32	1.04	36.0	1	30.0	9.0															
	2078	84.38	3.086	23.96	-16.2	1.02	135.0	1	112.5	33.75															
	2083	19.944	10.18	10.18	-2.22	1.02	24.0	1	20.0	6.0															
	2084	0.0	0.0	10.18	-2.22	1.02	24.0	0	20.0	6.0															
	2085	0.0	0.0	20.36	-4.44	1.02	48.0	0	40.0	12.0															
	2089	50.7	0.478	14.400000000000002	-9.73	1.0	81.12	1	67.6	20.28															
	2094	0.0	0.0	2.13	-1.44	1.0	12.0	0	10.0	3.0															
	2095	0.0	0.0	16.93	-11.45	1.0	95.4	0	79.5	23.85															
	2099	7.5	-0.055	2.13	-1.44	1.02	12.0	1	10.0	3.0															
	2100	112.5	0.585	31.95	-21.6	1.02	180.0	1	150.0	45.0															
	2103	0.0	0.0	136.28	-29.719999999999995	1.0	321.28	0	267.73	80.32															
	2104	0.0	0.0	136.28	-29.719999999999995	1.0	321.28	0	267.73	80.32															
	2105	0.0	0.0	136.28	-29.719999999999995	1.0	321.28	0	267.73	80.32															
	2115	184.204	-20.5	94.02	-20.5	1.0	221.66	1	184.72	55.40999999999999															
	2116	184.204	-20.5	94.02	-20.5	1.0	221.66	1	184.72	55.40999999999999															
	2117	184.204	-20.5	94.02	-20.5	1.0	221.66	1	184.72	55.40999999999999															
	2118	184.204	-20.5	94.02	-20.5	1.0	221.66	1	184.72	55.40999999999999															
	2119	184.204	-20.5	94.02	-20.5	1.0	221.66	1	184.72	55.40999999999999															
	2120	184.204	-2.916	94.02	-20.5	1.01	221.66	1	184.72	55.40999999999999															
	2123	136.28	-26.16	38.7	-26.16	1.0	218.04	0	181.7	54.510000000000005															
	2127	216.45	-0.025	61.47	-41.56	1.04	346.32	0	288.6	86.58															
	3004	28.13	-5.4	7.99	-5.4	1.0	45.0	1	37.5	11.25															
	3017	127.12999999999998	3.678	36.1	-24.41	1.01	203.4	1	169.5	50.85000000000001															
	3020	112.5	12.585	31.95	-21.6	1.03	180.0	1	150.0	45.0															
	3028	150.0	42.6	42.6	-28.800000000000004	1.04	240.0	1	200.0	60.0															
	3034	97.87	18.153	27.800000000000004	-18.79	1.03	156.6	1	130.5	39.15															
	3039	156.75	44.52	44.52	-30.099999999999998	1.04	250.8	1	209.0	62.7															
	3043	0.0	0.0	0.66	-0.14	1.04	1.56	0	1.3	0.39															
	3044	0.0	0.0	45.5	-9.92	1.04	107.28	0	89.4	26.82															
	3045	0.0	0.0	227.51999999999998	-49.62	1.04	536.4	0	447.0	134.1															
	3048	180.75	51.33	51.33	-34.7	1.04	289.2	0	241.0	72.3															
	3055	183.88	50.048	52.22	-35.3	1.04	294.2	1	245.17	73.55															
	3056	183.88	31.709	52.22	-35.3	1.04	294.2	1	245.17	73.55															
	3057	183.88	30.306	52.22	-35.3	1.04	294.2	1	245.17	73.55															
	3060	124.22	16.044	35.28	-23.85	1.04	198.75	1	165.63	49.69															
	3061	124.22	17.93	35.28	-23.85	1.04	198.75	1	165.63	49.69															
	3062	124.22	27.342	35.28	-23.85	1.04	198.75	1	165.63	49.69															
	3063	124.22	20.414	35.28	-23.85	1.04	198.75	1	165.63	49.69															
	3065	60.370000000000005	-8.375	17.15	-11.59	1.0	96.6	1	80.5	24.15															
	3068	112.5	30.845	31.95	-21.6	1.04	180.0	1	150.0	45.0															
	3071	127.64999999999999	-24.51	36.25	-24.51	1.0	204.24	1	170.2	51.06															
	3074	74.85	-1.881	21.26	-14.37	1.0	119.76	1	99.8	29.94															
	3081	186.75	40.914	53.04	-35.86	1.04	298.8	1	249.00000000000003	74.7															
	3084	174.37	-5.286	49.52	-33.48	1.0	279.0	1	232.50000000000003	69.75															
	3086	56.25	-0.108	15.97	-10.8	1.0	90.0	1	75.0	22.5															
	3087	0.0	0.0	15.97	-10.8	1.0	90.0	0	75.0	22.5															
	3092	150.0	30.829	42.6	-28.800000000000004	1.04	240.0	1	200.0	60.0															
	3095	90.45	21.163	25.69	-17.37	1.04	144.72	1	120.6	36.18															
	3098	120.0	21.816	34.08	-23.04	1.04	192.0	1	160.0	48.0															
	3105	44.5	-0.74	17.071	-0.74	1.0	18.0	1	44.5	0.0															
	3106	53.01899999999999	-2.57	62.477	-2.69	1.0	65.88	1	162.8	0.0															
	3110	63.0	13.69	17.89	-12.1	1.04	100.8	1	84.0	25.2															
	3112	56.10000000000001	-1.505	15.93	-10.77	1.0	89.76	1	74.8	22.44															
	3113	56.10000000000001	-0.8159999999999998	15.93	-10.77	1.0	89.76	1	74.8	22.44															
	3117	47.25	-3.7740000000000005	13.419999999999998	-9.07	1.0	75.6	1	63.0	18.9															
	3118	90.0	-6.631000000000001	25.56	-17.28	1.0	144.0	1	120.0	36.0															
	3120	29.7	0.0	0.0	0.0	1.0	47.52	1	39.6	11.88															
	3122	147.75	-8.91	41.96	-28.37	1.0	236.4	1	197.0	59.099999999999994															
...
];

%% branch data
%    f_bus    t_bus    r    x    b    rateA    rateB    rateC    ratio    angle    status    angmin    angmax
mpc.branch = [
	1001	1064	0.00524	0.0358	0.00609	221.0	0.0	0.0	0	0	1	-60.0001403060998	60.0001403060998								
	1001	1064	0.00524	0.0358	0.00609	221.0	0.0	0.0	0	0	1	-60.0001403060998	60.0001403060998								
	1001	1071	0.00435	0.02808	0.00536	221.0	0.0	0.0	0	0	1	-60.0001403060998	60.0001403060998								
	1001	1071	0.00435	0.02808	0.00536	221.0	0.0	0.0	0	0	1	-60.0001403060998	60.0001403060998								
	1002	1007	0.07776	0.46693	0.06336	98.0	0.0	0.0	0	0	1	-60.0001403060998	60.0001403060998								
	1010	1002	0.05552	0.1357	0.01777	98.0	0.0	0.0	0	0	1	-60.0001403060998	60.0001403060998								
	1022	1003	0.00485	0.02012	0.00341	221.0	0.0	0.0	0	0	1	-60.0001403060998	60.0001403060998								
	1055	1003	0.01574	0.03782	0.00513	98.0	0.0	0.0	0	0	1	-60.0001403060998	60.0001403060998								
	1004	3133	0.0042	0.03	0.055	523.0	0.0	0.0	0	0	1	-60.0001403060998	60.0001403060998								
	1025	1005	0.01842	0.0821	0.01204	149.0	0.0	0.0	0	0	1	-60.0001403060998	60.0001403060998								
	1005	1061	0.00599	0.02484	0.00422	221.0	0.0	0.0	0	0	1	-60.0001403060998	60.0001403060998								
	1067	1005	0.01711	0.04181	0.00548	98.0	0.0	0.0	0	0	1	-60.0001403060998	60.0001403060998								
	1007	1015	0.06224	0.37375	0.05072	98.0	0.0	0.0	0	0	1	-60.0001403060998	60.0001403060998								
	1031	1007	0.04803	0.27434	0.04123	98.0	0.0	0.0	0	0	1	-60.0001403060998	60.0001403060998								
	1008	1032	0.04501	0.11002	0.01441	98.0	0.0	0.0	0	0	1	-60.0001403060998	60.0001403060998								
	1008	1069	0.0083	0.03628	0.00553	149.0	0.0	0.0	0	0	1	-60.0001403060998	60.0001403060998								
	1010	1015	0.04703	0.28243	0.03833	98.0	0.0	0.0	0	0	1	-60.0001403060998	60.0001403060998								
	1010	1030	0.0616	0.3699	0.0502	98.0	0.0	0.0	0	0	1	-60.0001403060998	60.0001403060998								
	1012	1087	0.04934	0.20469	0.03473	149.0	0.0	0.0	0	0	1	-60.0001403060998	60.0001403060998								
	3051	1012	0.0571	0.24977	0.03804	149.0	0.0	0.0	0	0	1	-60.0001403060998	60.0001403060998								
	1013	1031	0.04509	0.27078	0.03675	98.0	0.0	0.0	0	0	1	-60.0001403060998	60.0001403060998								
	1047	1013	0.00947	0.06117	0.01167	221.0	0.0	0.0	0	0	1	-60.0001403060998	60.0001403060998								
	1086	1013	0.079	0.19311	0.02529	98.0	0.0	0.0	0	0	1	-60.0001403060998	60.0001403060998								
	1014	1047	0.03566	0.14794	0.0251	149.0	0.0	0.0	0	0	1	-60.0001403060998	60.0001403060998								
	1014	1083	0.04105	0.18293	0.02682	149.0	0.0	0.0	0	0	1	-60.0001403060998	60.0001403060998								
	1016	1034	0.01828	0.10976	0.01489	98.0	0.0	0.0	0	0	1	-60.0001403060998	60.0001403060998								
	1068	1016	0.02773	0.15837	0.0238	98.0	0.0	0.0	0	0	1	-60.0001403060998	60.0001403060998								
	1018	1017	0.03227	0.07887	0.01033	98.0	0.0	0.0	0	0	1	-60.0001403060998	60.0001403060998								
	1017	1029	0.03244	0.14188	0.02161	149.0	0.0	0.0	0	0	1	-60.0001403060998	60.0001403060998								
	1037	1017	0.00752	0.03352	0.00491	221.0	0.0	0.0	0	0	1	-60.0001403060998	60.0001403060998								
	1047	1017	0.036	0.156	0.024	150.0	0.0	0.0	0	0	1	-60.0001403060998	60.0001403060998								
	1024	1018	0.01094	0.06572	0.00892	98.0	0.0	0.0	0	0	1	-60.0001403060998	60.0001403060998								
	1019	1040	0.04978	0.20651	0.03504	149.0	0.0	0.0	0	0	1	-60.0001403060998	60.0001403060998								
	1019	1045	0.01522	0.0372	0.00487	221.0	0.0	0.0	0	0	1	-60.0001403060998	60.0001403060998								
	1019	1071	0.0044	0.028	0.0054	225.0	0.0	0.0	0	0	1	-60.0001403060998	60.0001403060998								
	1019	1071	0.0044	0.028	0.0054	225.0	0.0	0.0	0	0	1	-60.0001403060998	60.0001403060998								
	1019	1084	0.03	0.16	0.025	220.00000000000003	0.0	0.0	0	0	1	-60.0001403060998	60.0001403060998								
	1025	1020	0.00828	0.03434	0.00583	149.0	0.0	0.0	0	0	1	-60.0001403060998	60.0001403060998								
	1084	1020	0.01056	0.06337	0.0086	221.0	0.0	0.0	0	0	1	-60.0001403060998	60.0001403060998								
	1020	3059	0.0189	0.06	0.006	300.0	0.0	0.0	0	0	1	-60.0001403060998	60.0001403060998								
	1020	3130	0.00996	0.06938	0.01134	221.0	0.0	0.0	0	0	1	-60.0001403060998	60.0001403060998								
	1022	1028	0.01433	0.09253	0.01765	221.0	0.0	0.0	0	0	1	-60.0001403060998	60.0001403060998								
	1022	1028	0.01433	0.09253	0.01765	221.0	0.0	0.0	0	0	1	-60.0001403060998	60.0001403060998								
	1024	1090	0.01414	0.06303	0.00924	149.0	0.0	0.0	0	0	1	-60.0001403060998	60.0001403060998								
	1027	1045	0.02505	0.10957	0.01669	221.0	0.0	0.0	0	0	1	-60.0001403060998	60.0001403060998								
	1056	1027	0.03121	0.0763	0.00999	250.0	0.0	0.0	0	0	1	-60.0001403060998	60.0001403060998								
	1028	3109	0.00428	0.01875	0.00286	250.0	0.0	0.0	0	0	1	-60.0001403060998	60.0001403060998								
	1029	1056	0.02054	0.11733	0.01763	221.0	0.0	0.0	0	0	1	-60.0001403060998	60.0001403060998								
	1030	1038	0.07404	0.42285	0.06354	98.0	0.0	0.0	0	0	1	-60.0001403060998	60.0001403060998								
	1083	1030	0.06537	0.37334	0.0561	98.0	0.0	0.0	0	0	1	-60.0001403060998	60.0001403060998								
	1032	1036	0.01956	0.11746	0.01594	98.0	0.0	0.0	0	0	1	-60.0001403060998	60.0001403060998								
	1038	1032	0.045	0.11	0.015	155.0	0.0	0.0	0	0	1	-60.0001403060998	60.0001403060998								
	1033	1081	0.003	0.031	0.059	548.0	0.0	0.0	0	0	1	-60.0001403060998	60.0001403060998								
	1033	3050	0.0139	0.136	0.262	647.0	0.0	0.0	0	0	1	-60.0001403060998	60.0001403060998								
	1067	1034	0.00795	0.04771	0.00647	98.0	0.0	0.0	0	0	1	-60.0001403060998	60.0001403060998								
	1088	1036	0.02065	0.11793	0.01772	98.0	0.0	0.0	0	0	1	-60.0001403060998	60.0001403060998								
	1037	1071	0.00669	0.04319	0.00824	300.0	0.0	0.0	0	0	1	-60.0001403060998	60.0001403060998								
	1082	1038	0.01115	0.04969	0.00729	149.0	0.0	0.0	0	0	1	-60.0001403060998	60.0001403060998								
	1083	1038	0.01	0.05	0.007	221.0	0.0	0.0	0	0	1	-60.0001403060998	60.0001403060998								
	1065	1041	0.00386	0.02203	0.00331	98.0	0.0	0.0	0	0	1	-60.0001403060998	60.0001403060998								
	1041	1067	0.00393	0.01722	0.00262	149.0	0.0	0.0	0	0	1	-60.0001403060998	60.0001403060998								
	1044	3019	0.03857	0.17192	0.02521	149.0	0.0	0.0	0	0	1	-60.0001403060998	60.0001403060998								
	3130	1044	0.02731	0.19029	0.03111	221.0	0.0	0.0	0	0	1	-60.0001403060998	60.0001403060998								
	1045	1064	0.00545	0.03794	0.0062	221.0	0.0	0.0	0	0	1	-60.0001403060998	60.0001403060998								
	1087	1046	0.03262	0.14269	0.02173	149.0	0.0	0.0	0	0	1	-60.0001403060998	60.0001403060998								
	1046	3009	0.05654	0.23454	0.0398	149.0	0.0	0.0	0	0	1	-60.0001403060998	60.0001403060998								
	1047	1085	0.00947	0.06117	0.01167	221.0	0.0	0.0	0	0	1	-60.0001403060998	60.0001403060998								
	1053	1081	0.003	0.03	0.06	548.0	0.0	0.0	0	0	1	-60.0001403060998	60.0001403060998								
	1054	1056	0.02202	0.09633	0.01467	149.0	0.0	0.0	0	0	1	-60.0001403060998	60.0001403060998								
	1089	1054	0.08737	0.21357	0.02796	98.0	0.0	0.0	0	0	1	-60.0001403060998	60.0001403060998								
	1055	1089	0.04982	0.12179	0.01595	98.0	0.0	0.0	0	0	1	-60.0001403060998	60.0001403060998								
	1056	1061	0.02267	0.12946	0.01945	150.0	0.0	0.0	0	0	1	-60.0001403060998	60.0001403060998								
	1056	1065	0.02269	0.12962	0.01948	250.0	0.0	0.0	0	0	1	-60.0001403060998	60.0001403060998								
	1069	1058	0.0074	0.05155	0.00843	221.0	0.0	0.0	0	0	1	-60.0001403060998	60.0001403060998								
	1069	1058	0.0074	0.05155	0.00843	221.0	0.0	0.0	0	0	1	-60.0001403060998	60.0001403060998								
	1058	1087	0.01573	0.10956	0.01791	221.0	0.0	0.0	0	0	1	-60.0001403060998	60.0001403060998								
	1058	1087	0.01573	0.10956	0.01791	221.0	0.0	0.0	0	0	1	-60.0001403060998	60.0001403060998								
	1061	3042	0.054	0.18	0.028	221.0	0.0	0.0	0	0	1	-60.0001403060998	60.0001403060998								
	1088	1068	0.02962	0.16921	0.02543	98.0	0.0	0.0	0	0	1	-60.0001403060998	60.0001403060998								
	1082	1069	0.02137	0.0952	0.01396	149.0	0.0	0.0	0	0	1	-60.0001403060998	60.0001403060998								
	3048	1079	0.0013	0.015	1.02	2300.0	0.0	0.0	0	0	1	-60.0001403060998	60.0001403060998								
	3048	1079	0.0013	0.015	1.02	2300.0	0.0	0.0	0	0	1	-60.0001403060998	60.0001403060998								
	1081	3058	0.0091	0.089	0.171	548.0	0.0	0.0	0	0	1	-60.0001403060998	60.0001403060998								
	1084	3130	0.02049	0.09131	0.01339	221.0	0.0	0.0	0	0	1	-60.0001403060998	60.0001403060998								
	1085	1086	0.03392	0.14838	0.0226	149.0	0.0	0.0	0	0	1	-60.0001403060998	60.0001403060998								
	1090	1085	0.02018	0.13786	0.02346	221.0	0.0	0.0	0	0	1	-60.0001403060998	60.0001403060998								
	2029	1091	0.0389	0.17144	0.0798	187.0	0.0	0.0	0	0	1	-60.0001403060998	60.0001403060998								
	1091	2048	0.02193	0.09667	0.045	187.0	0.0	0.0	0	0	1	-60.0001403060998	60.0001403060998								
	2098	1091	0.00554	0.02443	0.01137	187.0	0.0	0.0	0	0	1	-60.0001403060998	60.0001403060998								
	2022	2001	0.00839	0.03697	0.01721	187.0	0.0	0.0	0	0	1	-60.0001403060998	60.0001403060998								
	2027	2001	0.00955	0.04062	0.02032	187.0	0.0	0.0	0	0	1	-60.0001403060998	60.0001403060998								
	2021	2002	0.00097	0.01175	0.78032	2295.0	0.0	0.0	0	0	1	-60.0001403060998	60.0001403060998								
	2002	2101	0.00031	0.0037	0.24573	2020.0	0.0	0.0	0	0	1	-60.0001403060998	60.0001403060998								
	2038	2003	0.00353	0.02067	0.01032	250.99999999999997	0.0	0.0	0	0	1	-60.0001403060998	60.0001403060998								
	2003	2047	0.0013	0.0099	0.0052	310.0	0.0	0.0	0	0	1	-60.0001403060998	60.0001403060998								
	2007	2114	0.00888	0.05207	0.026	250.99999999999997	0.0	0.0	0	0	1	-60.0001403060998	60.0001403060998								
	2007	2122	0.00861	0.03661	0.01831	187.0	0.0	0.0	0	0	1	-60.0001403060998	60.0001403060998								
	2014	2008	0.02253	0.09931	0.04623	187.0	0.0	0.0	0	0	1	-60.0001403060998	60.0001403060998								
	2008	2052	0.01877	0.08271	0.0385	187.0	0.0	0.0	0	0	1	-60.0001403060998	60.0001403060998								
	2009	2049	0.01224	0.07176	0.03583	250.99999999999997	0.0	0.0	0	0	1	-60.0001403060998	60.0001403060998								
	2009	2082	0.00735	0.03126	0.01563	187.0	0.0	0.0	0	0	1	-60.0001403060998	60.0001403060998								
	2109	2009	0.00725	0.03084	0.01542	250.0	0.0	0.0	0	0	1	-60.0001403060998	60.0001403060998								
	2061	2010	0.02439	0.10748	0.05003	187.0	0.0	0.0	0	0	1	-60.0001403060998	60.0001403060998								
	2010	2079	0.02061	0.09083	0.04228	187.0	0.0	0.0	0	0	1	-60.0001403060998	60.0001403060998								
	2010	2091	0.02461	0.10467	0.05235	187.0	0.0	0.0	0	0	1	-60.0001403060998	60.0001403060998								
	2127	2011	0.00108	0.01307	0.86827	2020.0	0.0	0.0	0	0	1	-60.0001403060998	60.0001403060998								
	2012	2041	0.01245	0.05297	0.02649	187.0	0.0	0.0	0	0	1	-60.0001403060998	60.0001403060998								
	2012	2052	0.02008	0.08851	0.0412	187.0	0.0	0.0	0	0	1	-60.0001403060998	60.0001403060998								
	2093	2012	0.01029	0.04536	0.02111	187.0	0.0	0.0	0	0	1	-60.0001403060998	60.0001403060998								
	2012	2123	0.00995	0.0423	0.02115	250.99999999999997	0.0	0.0	0	0	1	-60.0001403060998	60.0001403060998								
	2014	2029	0.01859	0.07908	0.03955	187.0	0.0	0.0	0	0	1	-60.0001403060998	60.0001403060998								
	2015	2037	0.00862	0.03799	0.01769	187.0	0.0	0.0	0	0	1	-60.0001403060998	60.0001403060998								
	5014	2015	0.00961	0.04237	0.01972	187.0	0.0	0.0	0	0	1	-60.0001403060998	60.0001403060998								
	2043	2016	0.00593	0.02614	0.01217	187.0	0.0	0.0	0	0	1	-60.0001403060998	60.0001403060998								
	2069	2016	0.0084	0.03705	0.01725	187.0	0.0	0.0	0	0	1	-60.0001403060998	60.0001403060998								
	2017	2096	0.00253	0.03068	2.03836	2020.0	0.0	0.0	0	0	1	-60.0001403060998	60.0001403060998								
	2017	2127	0.00089	0.01081	0.71846	2020.0	0.0	0.0	0	0	1	-60.0001403060998	60.0001403060998								
	2018	2093	0.01163	0.05125	0.02386	187.0	0.0	0.0	0	0	1	-60.0001403060998	60.0001403060998								
	2045	2020	0.00097	0.00548	0.00295	310.0	0.0	0.0	0	0	1	-60.0001403060998	60.0001403060998								
	2055	2020	0.00102	0.00744	0.00422	409.0	0.0	0.0	0	0	1	-60.0001403060998	60.0001403060998								
	2113	2021	0.0001	0.00124	0.08207	2020.0	0.0	0.0	0	0	1	-60.0001403060998	60.0001403060998								
	2022	2040	0.02207	0.09391	0.04697	187.0	0.0	0.0	0	0	1	-60.0001403060998	60.0001403060998								
	2064	2022	0.00558	0.03156	0.01697	250.99999999999997	0.0	0.0	0	0	1	-60.0001403060998	60.0001403060998								
	2025	2055	0.0023	0.01016	0.00473	187.0	0.0	0.0	0	0	1	-60.0001403060998	60.0001403060998								
	2067	2025	0.00317	0.014	0.00651	187.0	0.0	0.0	0	0	1	-60.0001403060998	60.0001403060998								
	2058	2026	0.02475	0.10526	0.05264	187.0	0.0	0.0	0	0	1	-60.0001403060998	60.0001403060998								
	2128	2026	0.01207	0.05318	0.02475	187.0	0.0	0.0	0	0	1	-60.0001403060998	60.0001403060998								
	2027	2090	0.01692	0.07455	0.0347	187.0	0.0	0.0	0	0	1	-60.0001403060998	60.0001403060998								
	2028	2045	0.00363	0.02129	0.01063	250.99999999999997	0.0	0.0	0	0	1	-60.0001403060998	60.0001403060998								
	2028	2109	0.01026	0.0452	0.02104	250.0	0.0	0.0	0	0	1	-60.0001403060998	60.0001403060998								
	2112	2028	0.00369	0.02161	0.01079	310.0	0.0	0.0	0	0	1	-60.0001403060998	60.0001403060998								
	2030	2106	0.0118	0.05199	0.0242	187.0	0.0	0.0	0	0	1	-60.0001403060998	60.0001403060998								
	2122	2030	0.00737	0.0432	0.02157	250.99999999999997	0.0	0.0	0	0	1	-60.0001403060998	60.0001403060998								
	2031	2048	0.02398	0.10567	0.04919	187.0	0.0	0.0	0	0	1	-60.0001403060998	60.0001403060998								
	2031	2087	0.02177	0.09259	0.04631	187.0	0.0	0.0	0	0	1	-60.0001403060998	60.0001403060998								
	2032	2114	0.01097	0.04834	0.0225	187.0	0.0	0.0	0	0	1	-60.0001403060998	60.0001403060998								
	2122	2032	0.01414	0.06232	0.02901	187.0	0.0	0.0	0	0	1	-60.0001403060998	60.0001403060998								
	2129	2033	0.00522	0.02298	0.0107	187.0	0.0	0.0	0	0	1	-60.0001403060998	60.0001403060998								
	2033	5288	0.00925	0.03935	0.01968	187.0	0.0	0.0	0	0	1	-60.0001403060998	60.0001403060998								
	2034	2043	0.00439	0.01867	0.00934	187.0	0.0	0.0	0	0	1	-60.0001403060998	60.0001403060998								
	2046	2034	0.00468	0.01993	0.00997	187.0	0.0	0.0	0	0	1	-60.0001403060998	60.0001403060998								
	2035	2066	0.01411	0.08272	0.04131	250.99999999999997	0.0	0.0	0	0	1	-60.0001403060998	60.0001403060998								
	2035	2091	0.01863	0.10528	0.05663	250.99999999999997	0.0	0.0	0	0	1	-60.0001403060998	60.0001403060998								
	2036	2055	0.00216	0.0092	0.0046	300.0	0.0	0.0	0	0	1	-60.0001403060998	60.0001403060998								
	2036	2082	0.00236	0.01003	0.00502	250.0	0.0	0.0	0	0	1	-60.0001403060998	60.0001403060998								
	2037	2065	0.00415	0.02434	0.01216	250.99999999999997	0.0	0.0	0	0	1	-60.0001403060998	60.0001403060998								
	2110	2037	0.00307	0.01798	0.00898	250.99999999999997	0.0	0.0	0	0	1	-60.0001403060998	60.0001403060998								
	2081	2038	0.00639	0.03748	0.01871	250.99999999999997	0.0	0.0	0	0	1	-60.0001403060998	60.0001403060998								
	2039	2086	0.00845	0.03725	0.01734	187.0	0.0	0.0	0	0	1	-60.0001403060998	60.0001403060998								
	5285	2039	0.00569	0.03334	0.01665	250.99999999999997	0.0	0.0	0	0	1	-60.0001403060998	60.0001403060998								
	2039	5455	0.00371	0.02173	0.01085	250.99999999999997	0.0	0.0	0	0	1	-60.0001403060998	60.0001403060998								
	2040	2114	0.02335	0.09932	0.04967	187.0	0.0	0.0	0	0	1	-60.0001403060998	60.0001403060998								
	2121	2040	0.00894	0.03938	0.01833	187.0	0.0	0.0	0	0	1	-60.0001403060998	60.0001403060998								
	2041	2058	0.0136	0.05786	0.02893	187.0	0.0	0.0	0	0	1	-60.0001403060998	60.0001403060998								
	2065	2044	0.01021	0.04497	0.02093	187.0	0.0	0.0	0	0	1	-60.0001403060998	60.0001403060998								
	2044	2102	0.01465	0.06453	0.03004	187.0	0.0	0.0	0	0	1	-60.0001403060998	60.0001403060998								
	2063	2046	0.00363	0.02051	0.01103	250.99999999999997	0.0	0.0	0	0	1	-60.0001403060998	60.0001403060998								
	2092	2047	0.00376	0.02203	0.011	250.99999999999997	0.0	0.0	0	0	1	-60.0001403060998	60.0001403060998								
	2079	2048	0.02944	0.12973	0.06039	187.0	0.0	0.0	0	0	1	-60.0001403060998	60.0001403060998								
	2049	2061	0.00912	0.05349	0.02671	250.99999999999997	0.0	0.0	0	0	1	-60.0001403060998	60.0001403060998								
	2090	2050	0.02377	0.10475	0.04876	187.0	0.0	0.0	0	0	1	-60.0001403060998	60.0001403060998								
	2050	5268	0.01273	0.05412	0.02707	187.0	0.0	0.0	0	0	1	-60.0001403060998	60.0001403060998								
	2080	2051	0.00691	0.03904	0.021	250.99999999999997	0.0	0.0	0	0	1	-60.0001403060998	60.0001403060998								
	2051	2112	0.00873	0.04934	0.02654	310.0	0.0	0.0	0	0	1	-60.0001403060998	60.0001403060998								
	5285	2053	0.00757	0.0428	0.02302	250.99999999999997	0.0	0.0	0	0	1	-60.0001403060998	60.0001403060998								
	2053	5362	0.01118	0.06552	0.03272	250.99999999999997	0.0	0.0	0	0	1	-60.0001403060998	60.0001403060998								
	2127	2054	0.033	0.043	2.3	2020.0	0.0	0.0	0	0	1	-60.0001403060998	60.0001403060998								
	2054	5236	0.0008	0.00971	0.64507	2020.0	0.0	0.0	0	0	1	-60.0001403060998	60.0001403060998								
	2123	2058	0.00524	0.0231	0.01075	187.0	0.0	0.0	0	0	1	-60.0001403060998	60.0001403060998								
	2060	2064	0.00608	0.03562	0.01779	250.99999999999997	0.0	0.0	0	0	1	-60.0001403060998	60.0001403060998								
	5136	2060	0.00421	0.02468	0.01232	250.99999999999997	0.0	0.0	0	0	1	-60.0001403060998	60.0001403060998								
	2092	2063	0.00409	0.02397	0.01197	250.99999999999997	0.0	0.0	0	0	1	-60.0001403060998	60.0001403060998								
	2126	2065	0.00712	0.04025	0.02165	250.99999999999997	0.0	0.0	0	0	1	-60.0001403060998	60.0001403060998								
	2073	2066	0.01087	0.06371	0.03181	250.99999999999997	0.0	0.0	0	0	1	-60.0001403060998	60.0001403060998								
	2068	2067	0.00995	0.05832	0.02912	250.99999999999997	0.0	0.0	0	0	1	-60.0001403060998	60.0001403060998								
	2068	2088	0.00135	0.00792	0.00396	250.99999999999997	0.0	0.0	0	0	1	-60.0001403060998	60.0001403060998								
	2069	2072	0.00557	0.03267	0.01631	250.99999999999997	0.0	0.0	0	0	1	-60.0001403060998	60.0001403060998								
	2069	5074	0.0102	0.04493	0.02092	187.0	0.0	0.0	0	0	1	-60.0001403060998	60.0001403060998								
	2088	2070	0.00235	0.01376	0.00687	250.99999999999997	0.0	0.0	0	0	1	-60.0001403060998	60.0001403060998								
	2070	5237	0.00727	0.03095	0.01548	245.00000000000003	0.0	0.0	0	0	1	-60.0001403060998	60.0001403060998								
	2072	2102	0.0084	0.04925	0.0246	250.99999999999997	0.0	0.0	0	0	1	-60.0001403060998	60.0001403060998								
	2087	2073	0.01908	0.08409	0.03914	187.0	0.0	0.0	0	0	1	-60.0001403060998	60.0001403060998								
	2073	3079	0.01377	0.08073	0.04031	250.99999999999997	0.0	0.0	0	0	1	-60.0001403060998	60.0001403060998								
	3115	2074	0.0052	0.02972	0.00447	221.0	0.0	0.0	0	0	1	-60.0001403060998	60.0001403060998								
	2077	2110	0.00218	0.01278	0.00638	310.0	0.0	0.0	0	0	1	-60.0001403060998	60.0001403060998								
	2077	2133	0.00307	0.01798	0.00898	250.99999999999997	0.0	0.0	0	0	1	-60.0001403060998	60.0001403060998								
	2086	2080	0.01338	0.05896	0.02745	187.0	0.0	0.0	0	0	1	-60.0001403060998	60.0001403060998								
	2133	2080	0.01236	0.07244	0.03618	250.99999999999997	0.0	0.0	0	0	1	-60.0001403060998	60.0001403060998								
	2081	2129	0.01257	0.05349	0.02675	187.0	0.0	0.0	0	0	1	-60.0001403060998	60.0001403060998								
	2090	2121	0.01763	0.075	0.03751	187.0	0.0	0.0	0	0	1	-60.0001403060998	60.0001403060998								
	2097	3096	0.00546	0.05679	0.19351	750.0	0.0	0.0	0	0	1	-60.0001403060998	60.0001403060998								
	2101	5083	0.00059	0.00721	0.47876	2020.0	0.0	0.0	0	0	1	-60.0001403060998	60.0001403060998								
	2102	2107	0.00156	0.01139	0.00646	310.0	0.0	0.0	0	0	1	-60.0001403060998	60.0001403060998								
	2124	2106	0.00485	0.02842	0.01419	250.99999999999997	0.0	0.0	0	0	1	-60.0001403060998	60.0001403060998								
	2106	2129	0.00424	0.01803	0.00902	187.0	0.0	0.0	0	0	1	-60.0001403060998	60.0001403060998								
	2107	2125	0.0109	0.06393	0.03192	250.99999999999997	0.0	0.0	0	0	1	-60.0001403060998	60.0001403060998								
	2130	2108	0.00945	0.04022	0.02012	187.0	0.0	0.0	0	0	1	-60.0001403060998	60.0001403060998								
	5472	2108	0.01619	0.07138	0.03323	187.0	0.0	0.0	0	0	1	-60.0001403060998	60.0001403060998								
	2111	5187	0.01319	0.05811	0.02705	187.0	0.0	0.0	0	0	1	-60.0001403060998	60.0001403060998								
	2111	5472	0.02196	0.09676	0.04504	187.0	0.0	0.0	0	0	1	-60.0001403060998	60.0001403060998								
...
];

%%-----  OPF Data  -----%%
%% cost data
%    1    startup    shutdown    n    x1    y1    ...    xn    yn
%    2    startup    shutdown    n    c(n-1)    ...    c0
mpc.gencost = [
	2	0.0	0.0	2	1.0	0.0
	2	0.0	0.0	2	1.0	0.0
	2	0.0	0.0	2	1.0	0.0
	2	0.0	0.0	2	1.0	0.0
	2	0.0	0.0	2	1.0	0.0
	2	0.0	0.0	2	1.0	0.0
	2	0.0	0.0	2	1.0	0.0
	2	0.0	0.0	2	1.0	0.0
	2	0.0	0.0	2	1.0	0.0
	2	0.0	0.0	2	1.0	0.0
	2	0.0	0.0	2	1.0	0.0
	2	0.0	0.0	2	1.0	0.0
	2	0.0	0.0	2	1.0	0.0
	2	0.0	0.0	2	1.0	0.0
	2	0.0	0.0	2	1.0	0.0
	2	0.0	0.0	2	1.0	0.0
	2	0.0	0.0	2	1.0	0.0
	2	0.0	0.0	2	1.0	0.0
	2	0.0	0.0	2	1.0	0.0
	2	0.0	0.0	2	1.0	0.0
	2	0.0	0.0	2	1.0	0.0
	2	0.0	0.0	2	1.0	0.0
	2	0.0	0.0	2	1.0	0.0
	2	0.0	0.0	2	1.0	0.0
	2	0.0	0.0	2	1.0	0.0
	2	0.0	0.0	2	1.0	0.0
	2	0.0	0.0	2	1.0	0.0
	2	0.0	0.0	2	1.0	0.0
	2	0.0	0.0	2	1.0	0.0
	2	0.0	0.0	2	1.0	0.0
	2	0.0	0.0	2	1.0	0.0
	2	0.0	0.0	2	1.0	0.0
	2	0.0	0.0	2	1.0	0.0
	2	0.0	0.0	2	1.0	0.0
	2	0.0	0.0	2	1.0	0.0
	2	0.0	0.0	2	1.0	0.0
	2	0.0	0.0	2	1.0	0.0
	2	0.0	0.0	2	1.0	0.0
	2	0.0	0.0	2	1.0	0.0
	2	0.0	0.0	2	1.0	0.0
	2	0.0	0.0	2	1.0	0.0
	2	0.0	0.0	2	1.0	0.0
	2	0.0	0.0	2	1.0	0.0
	2	0.0	0.0	2	1.0	0.0
	2	0.0	0.0	2	1.0	0.0
	2	0.0	0.0	2	1.0	0.0
	2	0.0	0.0	2	1.0	0.0
	2	0.0	0.0	2	1.0	0.0
	2	0.0	0.0	2	1.0	0.0
	2	0.0	0.0	2	1.0	0.0
	2	0.0	0.0	2	1.0	0.0
	2	0.0	0.0	2	1.0	0.0
	2	0.0	0.0	2	1.0	0.0
	2	0.0	0.0	2	1.0	0.0
	2	0.0	0.0	2	1.0	0.0
	2	0.0	0.0	2	1.0	0.0
	2	0.0	0.0	2	1.0	0.0
	2	0.0	0.0	2	1.0	0.0
	2	0.0	0.0	2	1.0	0.0
	2	0.0	0.0	2	1.0	0.0
	2	0.0	0.0	2	1.0	0.0
	2	0.0	0.0	2	1.0	0.0
	2	0.0	0.0	2	1.0	0.0
	2	0.0	0.0	2	1.0	0.0
	2	0.0	0.0	2	1.0	0.0
	2	0.0	0.0	2	1.0	0.0
	2	0.0	0.0	2	1.0	0.0
	2	0.0	0.0	2	1.0	0.0
	2	0.0	0.0	2	1.0	0.0
	2	0.0	0.0	2	1.0	0.0
	2	0.0	0.0	2	1.0	0.0
	2	0.0	0.0	2	1.0	0.0
	2	0.0	0.0	2	1.0	0.0
	2	0.0	0.0	2	1.0	0.0
	2	0.0	0.0	2	1.0	0.0
	2	0.0	0.0	2	1.0	0.0
	2	0.0	0.0	2	1.0	0.0
	2	0.0	0.0	2	1.0	0.0
	2	0.0	0.0	2	1.0	0.0
	2	0.0	0.0	2	1.0	0.0
	2	0.0	0.0	2	1.0	0.0
	2	0.0	0.0	2	1.0	0.0
	2	0.0	0.0	2	1.0	0.0
	2	0.0	0.0	2	1.0	0.0
	2	0.0	0.0	2	1.0	0.0
	2	0.0	0.0	2	1.0	0.0
	2	0.0	0.0	2	1.0	0.0
	2	0.0	0.0	2	1.0	0.0
	2	0.0	0.0	2	1.0	0.0
	2	0.0	0.0	2	1.0	0.0
	2	0.0	0.0	2	1.0	0.0
	2	0.0	0.0	2	1.0	0.0
	2	0.0	0.0	2	1.0	0.0
	2	0.0	0.0	2	1.0	0.0
	2	0.0	0.0	2	1.0	0.0
	2	0.0	0.0	2	1.0	0.0
	2	0.0	0.0	2	1.0	0.0
	2	0.0	0.0	2	1.0	0.0
	2	0.0	0.0	2	1.0	0.0
	2	0.0	0.0	2	1.0	0.0
	2	0.0	0.0	2	1.0	0.0
	2	0.0	0.0	2	1.0	0.0
	2	0.0	0.0	2	1.0	0.0
	2	0.0	0.0	2	1.0	0.0
	2	0.0	0.0	2	1.0	0.0
	2	0.0	0.0	2	1.0	0.0
	2	0.0	0.0	2	1.0	0.0
	2	0.0	0.0	2	1.0	0.0
	2	0.0	0.0	2	1.0	0.0
	2	0.0	0.0	2	1.0	0.0
	2	0.0	0.0	2	1.0	0.0
	2	0.0	0.0	2	1.0	0.0
	2	0.0	0.0	2	1.0	0.0
	2	0.0	0.0	2	1.0	0.0
	2	0.0	0.0	2	1.0	0.0
	2	0.0	0.0	2	1.0	0.0
	2	0.0	0.0	2	1.0	0.0
	2	0.0	0.0	2	1.0	0.0
	2	0.0	0.0	2	1.0	0.0
	2	0.0	0.0	2	1.0	0.0
	2	0.0	0.0	2	1.0	0.0
	2	0.0	0.0	2	1.0	0.0
	2	0.0	0.0	2	1.0	0.0
	2	0.0	0.0	2	1.0	0.0
	2	0.0	0.0	2	1.0	0.0
	2	0.0	0.0	2	1.0	0.0
	2	0.0	0.0	2	1.0	0.0
	2	0.0	0.0	2	1.0	0.0
	2	0.0	0.0	2	1.0	0.0
	2	0.0	0.0	2	1.0	0.0
	2	0.0	0.0	2	1.0	0.0
	2	0.0	0.0	2	1.0	0.0
	2	0.0	0.0	2	1.0	0.0
	2	0.0	0.0	2	1.0	0.0
	2	0.0	0.0	2	1.0	0.0
	2	0.0	0.0	2	1.0	0.0
	2	0.0	0.0	2	1.0	0.0
	2	0.0	0.0	2	1.0	0.0
	2	0.0	0.0	2	1.0	0.0
	2	0.0	0.0	2	1.0	0.0
	2	0.0	0.0	2	1.0	0.0
	2	0.0	0.0	2	1.0	0.0
	2	0.0	0.0	2	1.0	0.0
	2	0.0	0.0	2	1.0	0.0
	2	0.0	0.0	2	1.0	0.0
	2	0.0	0.0	2	1.0	0.0
	2	0.0	0.0	2	1.0	0.0
	2	0.0	0.0	2	1.0	0.0
	2	0.0	0.0	2	1.0	0.0
	2	0.0	0.0	2	1.0	0.0
	2	0.0	0.0	2	1.0	0.0
	2	0.0	0.0	2	1.0	0.0
	2	0.0	0.0	2	1.0	0.0
	2	0.0	0.0	2	1.0	0.0
	2	0.0	0.0	2	1.0	0.0
	2	0.0	0.0	2	1.0	0.0
	2	0.0	0.0	2	1.0	0.0
	2	0.0	0.0	2	1.0	0.0
	2	0.0	0.0	2	1.0	0.0
	2	0.0	0.0	2	1.0	0.0
	2	0.0	0.0	2	1.0	0.0
	2	0.0	0.0	2	1.0	0.0
	2	0.0	0.0	2	1.0	0.0
	2	0.0	0.0	2	1.0	0.0
	2	0.0	0.0	2	1.0	0.0
	2	0.0	0.0	2	1.0	0.0
	2	0.0	0.0	2	1.0	0.0
	2	0.0	0.0	2	1.0	0.0
	2	0.0	0.0	2	1.0	0.0
	2	0.0	0.0	2	1.0	0.0
	2	0.0	0.0	2	1.0	0.0
	2	0.0	0.0	2	1.0	0.0
	2	0.0	0.0	2	1.0	0.0
	2	0.0	0.0	2	1.0	0.0
	2	0.0	0.0	2	1.0	0.0
	2	0.0	0.0	2	1.0	0.0
	2	0.0	0.0	2	1.0	0.0
	2	0.0	0.0	2	1.0	0.0
	2	0.0	0.0	2	1.0	0.0
	2	0.0	0.0	2	1.0	0.0
	2	0.0	0.0	2	1.0	0.0
	2	0.0	0.0	2	1.0	0.0
	2	0.0	0.0	2	1.0	0.0
	2	0.0	0.0	2	1.0	0.0
	2	0.0	0.0	2	1.0	0.0
	2	0.0	0.0	2	1.0	0.0
	2	0.0	0.0	2	1.0	0.0
	2	0.0	0.0	2	1.0	0.0
	2	0.0	0.0	2	1.0	0.0
	2	0.0	0.0	2	1.0	0.0
	2	0.0	0.0	2	1.0	0.0
	2	0.0	0.0	2	1.0	0.0
	2	0.0	0.0	2	1.0	0.0
	2	0.0	0.0	2	1.0	0.0
	2	0.0	0.0	2	1.0	0.0
	2	0.0	0.0	2	1.0	0.0
	2	0.0	0.0	2	1.0	0.0
	2	0.0	0.0	2	1.0	0.0
	2	0.0	0.0	2	1.0	0.0
	2	0.0	0.0	2	1.0	0.0
...
];

%% bus names
mpc.bus_name = {
	'O DONNELL ~3'
	'PRESIDIO 2 0'
	'O DONNELL ~1'
	'O DONNELL ~2'
	'BIG SPRING~7'
	'BIG SPRING~8'
	'VAN HORN 0  '
	'MCCAMEY 1 ~1'
	'IRAAN 2 1   '
	'PRESIDIO 1 0'
	'PRESIDIO 1 1'
	'SANDERSON 0 '
	'MONAHANS 2 0'
	'GRANDFALLS 0'
	'MARFA 0     '
	'GARDEN CIT~1'
	'ODESSA 4 0  '
	'MONAHANS 1~1'
	'MIDLAND 4 0 '
	'BIG SPRING~1'
	'BIG SPRING~2'
	'O DONNELL ~4'
	'O DONNELL ~5'
	'ODESSA 6 0  '
	'BIG SPRIN~13'
	'BIG SPRIN~14'
	'MIDLAND 2 0 '
	'COAHOMA 0   '
	'MIDLAND 3 0 '
	'ALPINE 0    '
	'FORT DAVIS 0'
	'MCCAMEY 1 0 '
	'ODESSA 1 8~1'
	'BIG SPRING~6'
	'ODESSA 1 1~1'
	'FORT STOCK~2'
	'BIG SPRING~3'
	'MCCAMEY 2 ~1'
	'GOLDSMITH ~1'
	'GOLDSMITH ~2'
	'FORSAN 0    '
	'FORSAN 1    '
	'FORSAN 2    '
	'BIG LAKE 0  '
	'MIDLAND 5 0 '
	'OZONA 0     '
	'MONAHANS 1 0'
	'MONAHANS 1 1'
	'MONAHANS 1 2'
	'MONAHANS 1 3'
	'MONAHANS 1 4'
	'MONAHANS 1 5'
	'MONAHANS 1 6'
	'STANTON 0   '
	'ODONNELL 0  '
	'LENORAH 0   '
	'LENORAH 1   '
	'IRAAN 3 0   '
	'IRAAN 3 1   '
	'IRAAN 3 2   '
	'BIG SPRING~9'
	'BIG SPRIN~10'
	'BIG SPRIN~11'
	'ODESSA 3 0  '
	'BIG SPRING~4'
	'BIG SPRING~5'
	'BIG SPRIN~12'
	'MIDLAND 1 0 '
	'IRAAN 1 0   '
	'IRAAN 1 1   '
	'ODESSA 1 0  '
	'ODESSA 1 1  '
	'PANHANDLE ~2'
	'MIAMI 0_Gen1'
	'ODESSA 1 4  '
	'ODESSA 1 5  '
	'ODESSA 1 6  '
	'ODESSA 1 7  '
	'ODESSA 1 8  '
	'ODESSA 1 9  '
	'ODESSA 1 10 '
	'FORT STOCK~1'
	'FORT STOCK~3'
	'ROSCOE 5 2~1'
	'KERMIT 0    '
	'PECOS 0     '
	'SHEFFIELD 0 '
	'MCCAMEY 2 0 '
	'LAMESA 0    '
	'GOLDSMITH 0 '
	'RALLS 2 0   '
	'SWEETWATER~4'
	'ROSCOE 3 0~1'
	'TUSOCOLA 0~1'
	'SNYDER 2 0~1'
	'SNYDER 2 0~2'
	'SNYDER 2 0~3'
	'SWEETWATER~2'
	'SWEETWATER~6'
	'TAFT 1 0_G~1'
	'SAN PERLIT~2'
	'BROWNSVILL~2'
	'BROWNSVILL~3'
	'BROWNSVILL~4'
	'BROWNSVILL~5'
	'BROWNSVILL~6'
	'BROWNSVILL~7'
	'BROWNSVILL~8'
	'BROWNSVILL~9'
	'BROWNSVIL~10'
	'BROWNSVIL~11'
	'SEBASTIAN ~2'
	'OILTON 0_G~1'
	'MIDLOTHIAN~2'
	'MIDLOTHIAN~3'
	'MIDLOTHIAN~4'
	'MIDLOTHIAN~5'
	'MIDLOTHIAN~6'
	'MIDLOTHIAN~7'
	'MIDLOTHIAN~8'
	'MIDLOTHIAN~9'
	'AUSTIN 1 0~1'
	'AUSTIN 1 0~2'
	'AUSTIN 1 0~3'
	'AUSTIN 1 0~4'
	'AUSTIN 1 0~5'
	'AUSTIN 1 0~6'
	'AUSTIN 1 0~7'
	'AUSTIN 1 0~8'
	'AUSTIN 1 0~9'
	'AUSTIN 1 ~10'
	'AUSTIN 1 ~11'
	'WILLIS 1 0~1'
	'HOUSTON 6 ~1'
	'HOUSTON 6 ~2'
	'HOUSTON 6 ~3'
	'HOUSTON 6 ~4'
	'HOUSTON 6 ~5'
	'HOUSTON 6 ~6'
	'POINT COMF~2'
	'POINT COMF~3'
	'VICTORIA 1~1'
	'LA PORTE 0~1'
	'LA PORTE 0~2'
	'ALVIN 0_Gen1'
	'ALVIN 0_Ge~1'
	'ALVIN 0_Ge~2'
	'ALVIN 0_Gen2'
	'ALVIN 0_Gen3'
	'ALVIN 0_Gen4'
	'ALVIN 0_Gen5'
	'ALVIN 0_Gen6'
	'ALVIN 0_Gen7'
	'ALVIN 0_Gen8'
	'ALVIN 0_Gen9'
	'FREEPORT 2~1'
	'FREEPORT 2~2'
	'FREEPORT 2~3'
	'FREEPORT 2~4'
	'FREEPORT 2~5'
	'FREEPORT 2~6'
	'FREEPORT 2~7'
	'FREEPORT 2~8'
	'FREEPORT 2~9'
	'FREEPORT ~10'
	'FREEPORT ~11'
	'TRINIDAD 1~1'
	'TRINIDAD 1~2'
	'BRYAN 2 0_~1'
	'BREMOND 0_~1'
	'BREMOND 0_~2'
	'BRYAN 1 0_~1'
	'BRYAN 1 0_~2'
	'PARIS 3 0   '
	'SAVOY 0     '
	'SAVOY 1     '
	'SAVOY 2     '
	'SAVOY 3     '
	'SAVOY 4     '
	'HONEY GROV~1'
	'MEMPHIS 0   '
	'IOWA PARK 0 '
	'VERNON 2 0  '
	'PANHANDLE ~3'
	'PANHANDLE ~4'
	'PANHANDLE ~5'
	'CHILDRESS 0 '
	'FORESTBURG 0'
	'SHERMAN 3 0 '
	'PANHANDLE ~8'
	'PANHANDLE ~9'
	'PANHANDLE~10'
	'WICHITA F~12'
	'PARIS 2 0   '
	'PARIS 2 1   '
	'PARIS 2 2   '
	'PARIS 2 3   '
	'WICHITA F~10'
	'WHEELER 0   '
	'DEPORT 0    '
	'WICHITA FA~9'
	'SILVERTON 0 '
	'BONHAM 0    '
	'MATADOR 0   '
	'ARTHUR CIT~1'
	'LEONARD 0   '
	'GORDONVILL~1'
	'KNOX CITY 0 '
	'WICHITA F~13'
	'LINDSAY 0   '
	'ECTOR 0     '
	'SUNSET 0    '
	'CLARKSVILL~1'
	'PANHANDLE ~6'
	'PANHANDLE ~7'
	'SADLER 0    '
	'WHITESBORO 0'
	'SHEPPARD A~1'
	'POTTSBORO 0 '
	'BELLS 0     '
	'CROSBYTON 0 '
	'ELECTRA 0   '
	'PATTONVILL~1'
	'HENRIETTA 0 '
	'PANHANDLE~14'
	'BOWIE 0     '
	'WICHITA FA~1'
	'WICHITA FA~2'
	'WICHITA FA~3'
	'WICHITA FA~4'
	'WHITE DEER 0'
	'WHITE DEER 1'
	'ROXTON 0    '
	'VERNON 1 0  '
	'VERNON 1 1  '
	'DENISON 2 0 '
	'SUMNER 0    '
	'GAINESVILL~1'
	'ASPERMONT 0 '
	'WICHITA F~11'
	'WINDTHORST 0'
	'HOWE 0      '
	'ARCHER 2 0  '
	'ARCHER 2 1  '
	'COLLINSVIL~1'
	'JAYTON 0    '
	'JAYTON 1    '
	'JAYTON 2    '
	'JAYTON 3    '
	'MUENSTER 1 0'
	'MUENSTER 1 1'
	'PADUCAH 0   '
	'NOCONA 0    '
	'DODD CITY 0 '
	'WICHITA FA~5'
	'WICHITA FA~6'
	'WICHITA FA~7'
	'WICHITA FA~8'
	'MONTAGUE 0  '
	'SPUR 0      '
	'ARCHER 1 0  '
	'ARCHER 1 1  '
	'ANNONA 0    '
	'SEYMOUR 0   '
	'DENISON 1 0 '
	'PANHANDLE~11'
	'PANHANDLE~12'
	'PANHANDLE~13'
	'RALLS 1 0   '
	'RALLS 1 1   '
	'RALLS 1 2   '
	'RALLS 1 3   '
	'RALLS 1 4   '
	'SHERMAN 1 0 '
	'SHERMAN 1 1 '
	'SHERMAN 1 2 '
	'SHERMAN 1 3 '
	'SHERMAN 1 4 '
	'WHITEWRIGH~1'
	'SHERMAN 2 0 '
	'ROCHESTER 0 '
	'BURKBURNET~1'
	'MUENSTER 2 0'
	'ARCHER CIT~1'
	'PETROLIA 0  '
	'PARIS 1 0   '
	'PARIS 1 1   '
	'PARIS 1 2   '
	'PARIS 1 3   '
	'PARIS 1 4   '
	'PARIS 1 5   '
	'PARIS 1 6   '
	'PARIS 1 7   '
	'BAGWELL 0   '
	'TELEPHONE 0 '
	'PANHANDLE ~1'
	'VAN ALSTYN~1'
	'TIOGA 0     '
	'VALLEY VIE~1'
	'MIAMI 0     '
	'MIAMI 1     '
	'TRENTON 0   '
	'HASKELL 0   '
	'HASKELL 1   '
	'HASKELL 2   '
	'SAINT JO 0  '
	'KERRVILLE 0 '
	'KERRVILLE 1 '
	'SWEETWATER~7'
	'SWEETWATER~8'
	'LEAKEY 0    '
	'HAMLIN 0    '
	'MERKEL 3 0  '
	'COLEMAN 0   '
	'SONORA 0    '
	'CAMP WOOD 0 '
	'LLANO 0     '
	'WILLOW CIT~1'
	'ABILENE 4 0 '
	'KINGSLAND 0 '
	'ROSCOE 6 0  '
	'BLACKWELL 0 '
	'BLACKWELL 1 '
	'CHRISTOVAL 0'
	'CHRISTOVAL 1'
	'CHRISTOVAL 2'
	'LUEDERS 0   '
	'COLORADO C~1'
	'STAMFORD 0  '
	'ELDORADO 0  '
	'SAN SABA 0  '
	'ABILENE 2 0 '
	'ABILENE 2 1 '
	'ABILENE 2 2 '
	'LOMETA 0    '
	'SAN ANGELO~1'
	'TUSCOLA 0   '
	'ABILENE 7 0 '
	'SNYDER 1 0  '
	'SNYDER 1 1  '
	'CHEROKEE 0  '
	'RICHLAND S~1'
	'ROSCOE 2 0  '
	'ROSCOE 2 1  '
	'ROSCOE 2 2  '
	'BALLINGER 0 '
	'SILVER 0    '
	'SILVER 1    '
	'SILVER 2    '
	'SILVER 3    '
	'SILVER 4    '
	'ROSCOE 5 0  '
	'ROSCOE 5 1  '
	'ROSCOE 5 2  '
	'ANSON 0     '
	'DEL RIO 0   '
	'DEL RIO 1   '
...